-------------------------------------------------------
          Amber 18 PMEMD                              2018
          -------------------------------------------------------

  [-O]verwriting output

File Assignments:

 Here is the input file:

200 ps NPT equilbration
Langevin thermostat, MC barostat, and restraints
&cntrl
  irest     = 1,
  ntx       = 5,
  ig        = -1,
  dt        = 0.002,
  nstlim    = 100000,
  nscm      = 500,
  ntr       = 0,
  nmropt    = 1,
  ntb       = 2,
  ntp       = 1,
  barostat  = 2,
  pres0     = 1.0,
  mcbarint  = 100,
  comp      = 44.6,
  taup      = 1.0,
  ntt       = 3,
  temp0     = 298.0,
  gamma_ln  = 1.0,
  ntf       = 2,
  ntc       = 2,
  cut       = 10.0,
  ntpr      = 500,
  ntxo      = 2,
  ntwr      = 100000,
  ioutfm    = 1,
  iwrap     = 1,
&end
&wt
  type      = 'REST',
  value1    = 1.0,
&end
&wt
  type      = 'DUMPFREQ',
  istep1    = 500,
&end
&wt
  type      = 'END',
&end
DISANG      = equil_15_15.disang
DUMPAVE     = eq_restrained_15_15.dat

Note: ig = -1. Setting random seed to   457186 based on wallclock time in
      microseconds.

--------------------------------------------------------------------------------
   1.  RESOURCE   USE:
--------------------------------------------------------------------------------

 getting box info from netcdf restart file
 NATOM  =    3461 NTYPES =      12 NBONH =    3431 MBONA  =      31
 NTHETH =      56 MTHETA =      43 NPHIH =     100 MPHIA  =     106
 NHPARM =       0 NPARM  =       0 NNB   =    4827 NRES   =    1140
 NBONA  =      31 NTHETA =      43 NPHIA =     106 NUMBND =      28
 NUMANG =      50 NPTRA  =      62 NATYP =      20 NPHB   =       1
 IFBOX  =       2 NMXRS  =      24 IFCAP =       0 NEXTRA =       0
 NCOPY  =       0

     BOX TYPE: TRUNCATED OCTAHEDRON

--------------------------------------------------------------------------------
   2.  CONTROL  DATA  FOR  THE  RUN
--------------------------------------------------------------------------------

ACE

General flags:
     imin    =       0, nmropt  =       1

Nature and format of input:
     ntx     =       5, irest   =       1, ntrx    =       1

Nature and format of output:
     ntxo    =       2, ntpr    =     500, ntrx    =       1, ntwr    =  100000
     iwrap   =       1, ntwx    =       0, ntwv    =       0, ntwe    =       0
     ioutfm  =       1, ntwprt  =       0, idecomp =       0, rbornstat=      0

Potential function:
     ntf     =       2, ntb     =       2, igb     =       0, nsnb    =      25
     ipol    =       0, gbsa    =       0, iesp    =       0
     dielc   =   1.00000, cut     =  10.00000, intdiel =   1.00000

Frozen or restrained atoms:
     ibelly  =       0, ntr     =       0

Molecular dynamics:
     nstlim  =    100000, nscm    =       500, nrespa  =         1
     t       =   0.00000, dt      =   0.00200, vlimit  =  20.00000

Langevin dynamics temperature regulation:
     ig      =  457186
     temp0   = 298.00000, tempi   =   0.00000, gamma_ln=   1.00000

Pressure regulation:
     ntp     =       1
     pres0   =   1.00000, comp    =  44.60000, taup    =   1.00000
     Monte-Carlo Barostat:
     mcbarint  =     100

SHAKE:
     ntc     =       2, jfastw  =       0
     tol     =   0.00001

NMR refinement options:
     iscale  =       0, noeskp  =       1, ipnlty  =       1, mxsub   =       1
     scalm   = 100.00000, pencut  =   0.10000, tausw   =   0.10000

Ewald parameters:
     verbose =       0, ew_type =       0, nbflag  =       1, use_pme =       1
     vdwmeth =       1, eedmeth =       1, netfrc  =       1
     Box X =   35.417   Box Y =   35.417   Box Z =   35.417
     Alpha =  109.471   Beta  =  109.471   Gamma =  109.471
     NFFT1 =   36       NFFT2 =   36       NFFT3 =   36
     Cutoff=   10.000   Tol   =0.100E-04
     Ewald Coefficient =  0.27511
     Interpolation order =    4

--------------------------------------------------------------------------------
   3.  ATOMIC COORDINATES AND VELOCITIES
--------------------------------------------------------------------------------

ACE
 begin time read from input coords =  1020.000 ps

           Begin reading energy term weight changes/NMR restraints
 WEIGHT CHANGES:
 REST          0      0    1.000000    0.000000      0      0
 DUMPFREQ    500      0    0.000000    0.000000      0      0

 RESTRAINTS:
 Requested file redirections:
  DISANG    = equil_15_15.disang
  DUMPAVE   = eq_restrained_15_15.dat
 Restraints will be read from file: equil_15_15.disang
Here are comments from the DISANG input file:

                       Number of restraints read =     2

                  Done reading weight changes/NMR restraints

 Number of triangulated 3-point waters found:     1135

     Sum of charges from parm topology file =  -0.00000125
     Forcing neutrality...

--------------------------------------------------------------------------------
   4.  RESULTS
 NSTEP =      500   TIME(PS) =    1021.000  TEMP(K) =   300.06  PRESS =     0.0
 Etot   =    -10691.7893  EKtot   =      2072.6366  EPtot      =    -12764.4259
 BOND   =        15.7222  ANGLE   =        25.7411  DIHED      =        -4.4096
 1-4 NB =        12.0929  1-4 EEL =       252.8858  VDWAALS    =      2269.3151
 EELEC  =    -15339.0836  EHBOND  =         0.0000  RESTRAINT  =         3.3100
 EAMBER (non-restraint)  =    -12767.7359
 EKCMT  =         0.0000  VIRIAL  =         0.0000  VOLUME     =     34007.8143
                                                    Density    =         1.0189
 Ewald error estimate:   0.4956E-04
 ------------------------------------------------------------------------------

      A V E R A G E S   O V E R     200 S T E P S

 NSTEP =   100000   TIME(PS) =    1220.000  TEMP(K) =   298.31  PRESS =     0.0
 Etot   =    -10645.1327  EKtot   =      2060.5509  EPtot      =    -12705.6836
 BOND   =        11.0292  ANGLE   =        28.7836  DIHED      =        -7.5150
 1-4 NB =        11.3811  1-4 EEL =       252.3658  VDWAALS    =      2359.0941
 EELEC  =    -15361.1002  EHBOND  =         0.0000  RESTRAINT  =         0.2778
 EAMBER (non-restraint)  =    -12705.9614
 EKCMT  =         0.0000  VIRIAL  =         0.0000  VOLUME     =     34573.6155
                                                    Density    =         1.0023
 Ewald error estimate:   0.1742E-03
 ------------------------------------------------------------------------------

      R M S  F L U C T U A T I O N S

 NSTEP =   100000   TIME(PS) =    1220.000  TEMP(K) =     4.96  PRESS =     0.0
 Etot   =        64.3186  EKtot   =        34.2466  EPtot      =        59.7665
 BOND   =         2.7938  ANGLE   =         3.7291  DIHED      =         2.4926
 1-4 NB =         1.2999  1-4 EEL =         4.5718  VDWAALS    =        68.5705
 EELEC  =       106.4927  EHBOND  =         0.0000  RESTRAINT  =         0.5737
 EAMBER (non-restraint)  =        59.1929
 EKCMT  =         0.0000  VIRIAL  =         0.0000  VOLUME     =       277.2868
                                                    Density    =         0.0080
 Ewald error estimate:   0.1250E-03
 ------------------------------------------------------------------------------
