-------------------------------------------------------
          Amber 18 PMEMD                              2018
          -------------------------------------------------------

  [-O]verwriting output

File Assignments:

 Here is the input file:

200 ps NPT equilbration
Langevin thermostat, MC barostat, and restraints
&cntrl
  irest     = 1,
  ntx       = 5,
  ig        = -1,
  dt        = 0.002,
  nstlim    = 100000,
  nscm      = 500,
  ntr       = 0,
  nmropt    = 1,
  ntb       = 2,
  ntp       = 1,
  barostat  = 2,
  pres0     = 1.0,
  mcbarint  = 100,
  comp      = 44.6,
  taup      = 1.0,
  ntt       = 3,
  temp0     = 298.0,
  gamma_ln  = 1.0,
  ntf       = 2,
  ntc       = 2,
  cut       = 10.0,
  ntpr      = 500,
  ntxo      = 2,
  ntwr      = 100000,
  ioutfm    = 1,
  iwrap     = 1,
&end
&wt
  type      = 'REST',
  value1    = 1.0,
&end
&wt
  type      = 'DUMPFREQ',
  istep1    = 500,
&end
&wt
  type      = 'END',
&end
DISANG      = equil_5_5.disang
DUMPAVE     = eq_restrained_5_5.dat

Note: ig = -1. Setting random seed to   108466 based on wallclock time in
      microseconds.

--------------------------------------------------------------------------------
   1.  RESOURCE   USE:
--------------------------------------------------------------------------------

 getting box info from netcdf restart file
 NATOM  =    3461 NTYPES =      12 NBONH =    3431 MBONA  =      31
 NTHETH =      56 MTHETA =      43 NPHIH =     100 MPHIA  =     106
 NHPARM =       0 NPARM  =       0 NNB   =    4827 NRES   =    1140
 NBONA  =      31 NTHETA =      43 NPHIA =     106 NUMBND =      28
 NUMANG =      50 NPTRA  =      62 NATYP =      20 NPHB   =       1
 IFBOX  =       2 NMXRS  =      24 IFCAP =       0 NEXTRA =       0
 NCOPY  =       0

     BOX TYPE: TRUNCATED OCTAHEDRON

--------------------------------------------------------------------------------
   2.  CONTROL  DATA  FOR  THE  RUN
--------------------------------------------------------------------------------

ACE

General flags:
     imin    =       0, nmropt  =       1

Nature and format of input:
     ntx     =       5, irest   =       1, ntrx    =       1

Nature and format of output:
     ntxo    =       2, ntpr    =     500, ntrx    =       1, ntwr    =  100000
     iwrap   =       1, ntwx    =       0, ntwv    =       0, ntwe    =       0
     ioutfm  =       1, ntwprt  =       0, idecomp =       0, rbornstat=      0

Potential function:
     ntf     =       2, ntb     =       2, igb     =       0, nsnb    =      25
     ipol    =       0, gbsa    =       0, iesp    =       0
     dielc   =   1.00000, cut     =  10.00000, intdiel =   1.00000

Frozen or restrained atoms:
     ibelly  =       0, ntr     =       0

Molecular dynamics:
     nstlim  =    100000, nscm    =       500, nrespa  =         1
     t       =   0.00000, dt      =   0.00200, vlimit  =  20.00000

Langevin dynamics temperature regulation:
     ig      =  108466
     temp0   = 298.00000, tempi   =   0.00000, gamma_ln=   1.00000

Pressure regulation:
     ntp     =       1
     pres0   =   1.00000, comp    =  44.60000, taup    =   1.00000
     Monte-Carlo Barostat:
     mcbarint  =     100

SHAKE:
     ntc     =       2, jfastw  =       0
     tol     =   0.00001

NMR refinement options:
     iscale  =       0, noeskp  =       1, ipnlty  =       1, mxsub   =       1
     scalm   = 100.00000, pencut  =   0.10000, tausw   =   0.10000

Ewald parameters:
     verbose =       0, ew_type =       0, nbflag  =       1, use_pme =       1
     vdwmeth =       1, eedmeth =       1, netfrc  =       1
     Box X =   35.417   Box Y =   35.417   Box Z =   35.417
     Alpha =  109.471   Beta  =  109.471   Gamma =  109.471
     NFFT1 =   36       NFFT2 =   36       NFFT3 =   36
     Cutoff=   10.000   Tol   =0.100E-04
     Ewald Coefficient =  0.27511
     Interpolation order =    4

--------------------------------------------------------------------------------
   3.  ATOMIC COORDINATES AND VELOCITIES
--------------------------------------------------------------------------------

ACE
 begin time read from input coords =  1020.000 ps

           Begin reading energy term weight changes/NMR restraints
 WEIGHT CHANGES:
 REST          0      0    1.000000    0.000000      0      0
 DUMPFREQ    500      0    0.000000    0.000000      0      0

 RESTRAINTS:
 Requested file redirections:
  DISANG    = equil_5_5.disang
  DUMPAVE   = eq_restrained_5_5.dat
 Restraints will be read from file: equil_5_5.disang
Here are comments from the DISANG input file:

                       Number of restraints read =     2

                  Done reading weight changes/NMR restraints

 Number of triangulated 3-point waters found:     1135

     Sum of charges from parm topology file =  -0.00000125
     Forcing neutrality...

--------------------------------------------------------------------------------
   4.  RESULTS
 NSTEP =      500   TIME(PS) =    1021.000  TEMP(K) =   304.27  PRESS =     0.0
 Etot   =    -10667.3406  EKtot   =      2101.7275  EPtot      =    -12769.0681
 BOND   =        14.0180  ANGLE   =        23.2394  DIHED      =        -6.3197
 1-4 NB =        12.4264  1-4 EEL =       253.2989  VDWAALS    =      2333.8807
 EELEC  =    -15400.2200  EHBOND  =         0.0000  RESTRAINT  =         0.6081
 EAMBER (non-restraint)  =    -12769.6762
 EKCMT  =         0.0000  VIRIAL  =         0.0000  VOLUME     =     34392.7777
                                                    Density    =         1.0075
 Ewald error estimate:   0.4220E-03
 ------------------------------------------------------------------------------

      A V E R A G E S   O V E R     200 S T E P S

 NSTEP =   100000   TIME(PS) =    1220.000  TEMP(K) =   298.34  PRESS =     0.0
 Etot   =    -10638.3999  EKtot   =      2060.8056  EPtot      =    -12699.2055
 BOND   =        11.4827  ANGLE   =        28.5182  DIHED      =        -7.7102
 1-4 NB =        11.5079  1-4 EEL =       251.7228  VDWAALS    =      2363.3606
 EELEC  =    -15358.4892  EHBOND  =         0.0000  RESTRAINT  =         0.4016
 EAMBER (non-restraint)  =    -12699.6071
 EKCMT  =         0.0000  VIRIAL  =         0.0000  VOLUME     =     34668.8661
                                                    Density    =         0.9996
 Ewald error estimate:   0.1857E-03
 ------------------------------------------------------------------------------

      R M S  F L U C T U A T I O N S

 NSTEP =   100000   TIME(PS) =    1220.000  TEMP(K) =     5.12  PRESS =     0.0
 Etot   =        68.2844  EKtot   =        35.3620  EPtot      =        56.0535
 BOND   =         2.6755  ANGLE   =         4.1406  DIHED      =         2.4756
 1-4 NB =         1.2805  1-4 EEL =         4.2130  VDWAALS    =        55.9554
 EELEC  =        91.6685  EHBOND  =         0.0000  RESTRAINT  =         0.7150
 EAMBER (non-restraint)  =        55.3384
 EKCMT  =         0.0000  VIRIAL  =         0.0000  VOLUME     =       212.8437
                                                    Density    =         0.0061
 Ewald error estimate:   0.1323E-03
 ------------------------------------------------------------------------------
